[TITLE]
;;Project Title/Notes

[OPTIONS]
;;Option             Value
FLOW_UNITS           LPS
INFILTRATION         HORTON
FLOW_ROUTING         DYNWAVE
LINK_OFFSETS         DEPTH
MIN_SLOPE            0.001
ALLOW_PONDING        NO
SKIP_STEADY_STATE    NO

START_DATE           01/01/1999
START_TIME           00:00:00
REPORT_START_DATE    01/01/1999
REPORT_START_TIME    00:00:00
END_DATE             01/01/1999
END_TIME             10:00:00
SWEEP_START          01/01
SWEEP_END            12/31
DRY_DAYS             0
REPORT_STEP          00:01:00
WET_STEP             00:05:00
DRY_STEP             01:00:00
ROUTING_STEP         0:00:01 
RULE_STEP            00:00:00

INERTIAL_DAMPING     FULL
NORMAL_FLOW_LIMITED  BOTH
FORCE_MAIN_EQUATION  D-W
VARIABLE_STEP        0.75
LENGTHENING_STEP     300
MIN_SURFAREA         8.5
MAX_TRIALS           8
HEAD_TOLERANCE       0.0015
SYS_FLOW_TOL         5
LAT_FLOW_TOL         5
MINIMUM_STEP         0.5
THREADS              1

[EVAPORATION]
;;Data Source    Parameters
;;-------------- ----------------
CONSTANT         0.0
DRY_ONLY         NO

[RAINGAGES]
;;Name           Format    Interval SCF      Source    
;;-------------- --------- ------ ------ ----------
Gage1            VOLUME    0:05     1.0      TIMESERIES design_storm    

[SUBCATCHMENTS]
;;Name           Rain Gage        Outlet           Area     %Imperv  Width    %Slope   CurbLen  SnowPack        
;;-------------- ---------------- ---------------- -------- -------- -------- -------- -------- ----------------
S10-002          Gage1            J10-002          0.2145   48       30       8        0                        
S10-009          Gage1            J10-009          0.9829   54       65       11       0                        
S10-018          Gage1            J10-018          0.834    54       83.4     13       0                        
S10-026          Gage1            J10-026          0.7155   54       65       13       0                        
S10-033          Gage1            J10-033          1.0724   54       150      16       0                        
S1-004           Gage1            J1-004           0.2355   54       95       8        0                        
S1-014           Gage1            J1-014           0.83     70       180      16       0                        
S12-002          Gage1            J12-002          0.1568   48       62       14       0                        
S13-011          Gage1            J13-011          0.539    48       53.9     13.5     0                        
S13-017          Gage1            J13-017          0.8231   54       82.31    16       0                        
S15-006          Gage1            J15-006          0.6215   70       55       11       0                        
S15-011          Gage1            J15-011          0.6489   54       64.89    13       0                        
S15-021          Gage1            J15-021          1.1976   54       90       12       0                        
S18-003          Gage1            J18-003          0.6151   48       61.51    13.5     0                        
S19-004          Gage1            J19-004          0.1871   70       18.71    15       0                        
S20-002          Gage1            J20-002          0.1925   70       45       10       0                        
S20-015          Gage1            J20-015          0.9158   70       50       8        0                        
S2-007           Gage1            J2-007           0.6787   54       67.87    12       0                        
S2-008           Gage1            J2-008           0.8714   54       87.14    12       0                        
S2-019           Gage1            J2-019           0.8416   54       75       13.5     0                        
S23-004          Gage1            J23-004          0.2637   70       32       8        0                        
S23-015          Gage1            J23-015          1.1564   35       60       8        0                        
S23-025          Gage1            J23-025          0.2089   48       55       10       0                        
S23-030          Gage1            J23-030          0.5885   70       100      16       0                        
S24-002          Gage1            J24-002          0.3178   48       70       10       0                        
S25-001          Gage1            J25-001          0.8523   54       60       10       0                        
S26-001          Gage1            J26-001          0.2406   70       24.06    8        0                        
S27-001          Gage1            J27-001          0.6587   35       110      8        0                        
S30-002          Gage1            J30-002          0.314    35       35       15       0                        
S3-003           Gage1            J3-003           0.2857   54       100      8        0                        
S31-002          Gage1            J31-002          0.2002   48       60       10       0                        
S32-001          Gage1            J32-001          0.3524   48       95       15       0                        
S33-004          Gage1            J33-004          1.3759   48       85       8        0                        
S4-001           Gage1            J4-001           0.1298   54       50       8        0                        
S5-003           Gage1            J5-003           0.4481   54       72       8        0                        
S6-003           Gage1            J6-003           0.6185   54       65       13       0                        
S7-005           Gage1            J7-005           0.6197   54       61.97    13.5     0                        
S8-002           Gage1            J8-002           0.1356   53       45       8        0                        

[SUBAREAS]
;;Subcatchment   N-Imperv   N-Perv     S-Imperv   S-Perv     PctZero    RouteTo    PctRouted 
;;-------------- ---------- ---------- ---------- ---------- ---------- ---------- ----------
S10-002          0.01       0.1        0.5        5          25         OUTLET    
S10-009          0.01       0.1        0.5        5          25         OUTLET    
S10-018          0.01       0.1        0.5        5          25         OUTLET    
S10-026          0.01       0.1        0.5        5          25         OUTLET    
S10-033          0.01       0.1        0.5        5          25         OUTLET    
S1-004           0.01       0.1        0.5        5          25         OUTLET    
S1-014           0.01       0.1        0.5        5          25         OUTLET    
S12-002          0.01       0.1        0.5        5          25         OUTLET    
S13-011          0.01       0.1        0.5        5          25         OUTLET    
S13-017          0.01       0.1        0.5        5          25         OUTLET    
S15-006          0.01       0.1        0.5        5          25         OUTLET    
S15-011          0.01       0.1        0.5        5          25         OUTLET    
S15-021          0.01       0.1        0.5        5          25         OUTLET    
S18-003          0.01       0.1        0.5        5          25         OUTLET    
S19-004          0.01       0.1        0.5        5          25         OUTLET    
S20-002          0.01       0.1        0.5        5          25         OUTLET    
S20-015          0.01       0.1        0.5        5          25         OUTLET    
S2-007           0.01       0.1        0.5        5          25         OUTLET    
S2-008           0.01       0.1        0.5        5          25         OUTLET    
S2-019           0.01       0.1        0.5        5          25         OUTLET    
S23-004          0.01       0.1        0.5        5          25         OUTLET    
S23-015          0.01       0.1        0.5        5          25         OUTLET    
S23-025          0.01       0.1        0.5        5          25         OUTLET    
S23-030          0.01       0.1        0.5        5          25         OUTLET    
S24-002          0.01       0.1        0.5        5          25         OUTLET    
S25-001          0.01       0.1        0.5        5          25         OUTLET    
S26-001          0.01       0.1        0.5        5          25         OUTLET    
S27-001          0.01       0.1        0.5        5          25         OUTLET    
S30-002          0.01       0.1        0.5        5          25         OUTLET    
S3-003           0.01       0.1        0.5        5          25         OUTLET    
S31-002          0.01       0.1        0.5        5          25         OUTLET    
S32-001          0.01       0.1        0.5        5          25         OUTLET    
S33-004          0.01       0.1        0.5        5          25         OUTLET    
S4-001           0.01       0.1        0.5        5          25         OUTLET    
S5-003           0.01       0.1        0.5        5          25         OUTLET    
S6-003           0.01       0.1        0.5        5          25         OUTLET    
S7-005           0.01       0.1        0.5        5          25         OUTLET    
S8-002           0.01       0.1        0.5        5          25         OUTLET    

[INFILTRATION]
;;Subcatchment   MaxRate    MinRate    Decay      DryTime    MaxInfil  
;;-------------- ---------- ---------- ---------- ---------- ----------
S10-002          75         12         4          7          0         
S10-009          75         12         4          7          0         
S10-018          75         12         4          7          0         
S10-026          75         12         4          7          0         
S10-033          75         12         4          7          0         
S1-004           75         12         4          7          0         
S1-014           75         12         4          7          0         
S12-002          75         12         4          7          0         
S13-011          75         12         4          7          0         
S13-017          75         12         4          7          0         
S15-006          75         12         4          7          0         
S15-011          75         12         4          7          0         
S15-021          75         12         4          7          0         
S18-003          75         12         4          7          0         
S19-004          75         12         4          7          0         
S20-002          75         12         4          7          0         
S20-015          75         12         4          7          0         
S2-007           75         12         4          7          0         
S2-008           75         12         4          7          0         
S2-019           75         12         4          7          0         
S23-004          75         12         4          7          0         
S23-015          75         12         4          7          0         
S23-025          75         12         4          7          0         
S23-030          75         12         4          7          0         
S24-002          75         12         4          7          0         
S25-001          75         12         4          7          0         
S26-001          75         12         4          7          0         
S27-001          75         12         4          7          0         
S30-002          75         12         4          7          0         
S3-003           75         12         4          7          0         
S31-002          75         12         4          7          0         
S32-001          75         12         4          7          0         
S33-004          75         12         4          7          0         
S4-001           75         12         4          7          0         
S5-003           75         12         4          7          0         
S6-003           75         12         4          7          0         
S7-005           75         12         4          7          0         
S8-002           75         12         4          7          0         

[JUNCTIONS]
;;Name           Elevation  MaxDepth   InitDepth  SurDepth   Aponded   
;;-------------- ---------- ---------- ---------- ---------- ----------
J10-001          852.9      2          0          0          0         
J10-002          853.39     2          0          0          0         
J10-003          853.76     2          0          0          0         
J10-004          854.48     2          0          0          0         
J10-005          854.76     2          0          0          0         
J10-006          855.2      2          0          0          0         
J10-007          861.2      2          0          0          0         
J10-008          863.48     2          0          0          0         
J10-009          863.52     2          0          0          0         
J10-010          868.19     2          0          0          0         
J10-011          868.3      2          0          0          0         
J10-012          869.9      2          0          0          0         
J10-013          870.2      2          0          0          0         
J10-014          871.6      2          0          0          0         
J10-015          872.2      2          0          0          0         
J10-016          872.63     2          0          0          0         
J10-017          875.2      2          0          0          0         
J10-018          877.6      2          0          0          0         
J10-019          880.5      2          0          0          0         
J10-020          884.1      2          0          0          0         
J10-021          885.2      2          0          0          0         
J10-022          887.7      2          0          0          0         
J10-023          888.8      2          0          0          0         
J10-024          889.3      2          0          0          0         
J10-025          889.9      2          0          0          0         
J10-026          890.1      2          0          0          0         
J10-027          892.1      2          0          0          0         
J10-028          893.6      2          0          0          0         
J10-029          895.65     2          0          0          0         
J1-003           842.1      2          0          0          0         
J10-030          896.5      2          0          0          0         
J10-031          897.9      2          0          0          0         
J10-032          898.15     2          0          0          0         
J10-033          898.85     2          0          0          0         
J10-034          899.13     2          0          0          0         
J10-035          899.38     2          0          0          0         
J1-004           842.5      2          0          0          0         
J1-005           843.83     2          0          0          0         
J1-006           846.4      2          0          0          0         
J1-007           850.28     2          0          0          0         
J1-008           857.4      2          0          0          0         
J1-009           865        2          0          0          0         
J1-010           867.7      2          0          0          0         
J1-011           873.5      2          0          0          0         
J1-012           879.5      2          0          0          0         
J1-013           882.1      2          0          0          0         
J1-014           883.8      2          0          0          0         
J1-015           885.8      2          0          0          0         
J11-001          866.3      2          0          0          0         
J12-001          869        2          0          0          0         
J12-002          869.6      2          0          0          0         
J12-003          869.8      2          0          0          0         
J13-001          869.8      2          0          0          0         
J13-002          870.5      2          0          0          0         
J13-003          871.9      2          0          0          0         
J13-004          872.21     2          0          0          0         
J13-005          872.56     2          0          0          0         
J13-006          872.79     2          0          0          0         
J13-007          873.04     2          0          0          0         
J13-008          873.1      2          0          0          0         
J13-009          876.03     2          0          0          0         
J13-010          876.3      2          0          0          0         
J13-011          877.82     2          0          0          0         
J13-012          879.6      2          0          0          0         
J13-013          880.55     2          0          0          0         
J13-014          883.25     2          0          0          0         
J13-015          886.65     2          0          0          0         
J13-016          889.2      2          0          0          0         
J13-017          891.4      2          0          0          0         
J13-018          893.5      2          0          0          0         
J13-019          895.4      2          0          0          0         
J14-001          851.48     2          0          0          0         
J14-002          852.04     2          0          0          0         
J15-001          854.99     2          0          0          0         
J15-002          856.66     2          0          0          0         
J15-003          857.34     2          0          0          0         
J15-004          857.66     2          0          0          0         
J15-005          864.2      2          0          0          0         
J15-006          866.9      2          0          0          0         
J15-007          869.85     2          0          0          0         
J15-008          870.8      2          0          0          0         
J15-009          871.2      2          0          0          0         
J15-010          873        2          0          0          0         
J15-011          873.76     2          0          0          0         
J15-012          874.33     2          0          0          0         
J15-013          874.9      2          0          0          0         
J15-014          875.9      2          0          0          0         
J15-015          876.7      2          0          0          0         
J15-016          878        2          0          0          0         
J15-017          878.95     2          0          0          0         
J15-018          881.8      2          0          0          0         
J15-019          884        2          0          0          0         
J15-020          886.7      2          0          0          0         
J15-021          890.1      2          0          0          0         
J15-022          890.83     2          0          0          0         
J15-023          893.1      2          0          0          0         
J15-024          893.83     2          0          0          0         
J15-025          894.58     2          0          0          0         
J16-001          863.83     2          0          0          0         
J17-001          872.48     2          0          0          0         
J17-002          872.96     2          0          0          0         
J18-001          872.9      2          0          0          0         
J18-002          876.4      2          0          0          0         
J18-003          878.24     2          0          0          0         
J18-004          881.4      2          0          0          0         
J19-001          880        2          0          0          0         
J19-002          884.5      2          0          0          0         
J19-003          887.4      2          0          0          0         
J19-004          890.05     2          0          0          0         
J19-005          892.85     2          0          0          0         
J20-001          857.93     2          0          0          0         
J20-002          858.1      2          0          0          0         
J20-003          858.28     2          0          0          0         
J20-004          858.49     2          0          0          0         
J20-005          859.75     2          0          0          0         
J20-006          859.78     2          0          0          0         
J20-007          867.6      2          0          0          0         
J20-008          872.45     2          0          0          0         
J20-009          874.45     2          0          0          0         
J2-001           842.06     2          0          0          0         
J20-010          874.52     2          0          0          0         
J20-011          874.7      2          0          0          0         
J20-012          874.79     2          0          0          0         
J20-013          876.9      2          0          0          0         
J20-014          879.9      2          0          0          0         
J20-015          882.5      2          0          0          0         
J20-016          885.1      2          0          0          0         
J20-017          885.4      2          0          0          0         
J2-002           845.5      2          0          0          0         
J2-003           848.7      2          0          0          0         
J2-004           852.4      2          0          0          0         
J2-005           854.5      2          0          0          0         
J2-006           856.7      2          0          0          0         
J2-007           859.6      2          0          0          0         
J2-008           863        2          0          0          0         
J2-009           863.6      2          0          0          0         
J2-010           864.85     2          0          0          0         
J2-011           866.5      2          0          0          0         
J2-012           867.85     2          0          0          0         
J2-013           869.45     2          0          0          0         
J2-014           869.6      2          0          0          0         
J2-015           869.81     2          0          0          0         
J2-016           870        2          0          0          0         
J2-017           871.98     2          0          0          0         
J2-018           874.6      2          0          0          0         
J2-019           876.3      2          0          0          0         
J2-020           877.15     2          0          0          0         
J2-021           881.6      2          0          0          0         
J21-001          869.57     2          0          0          0         
J22-001          878.6      2          0          0          0         
J23-001          860.62     2          0          0          0         
J23-002          861.2      2          0          0          0         
J23-003          865.64     2          0          0          0         
J23-004          866.8      2          0          0          0         
J23-005          867.7      2          0          0          0         
J23-006          869.8      2          0          0          0         
J23-007          871.73     2          0          0          0         
J23-008          872.2      2          0          0          0         
J23-009          872.27     2          0          0          0         
J23-010          872.39     2          0          0          0         
J23-011          872.51     2          0          0          0         
J23-012          872.59     2          0          0          0         
J23-013          872.67     2          0          0          0         
J23-014          872.9      2          0          0          0         
J23-015          874.4      2          0          0          0         
J23-016          876.1      2          0          0          0         
J23-017          878.2      2          0          0          0         
J23-018          881.61     2          0          0          0         
J23-019          884.82     2          0          0          0         
J23-020          887.8      2          0          0          0         
J23-021          888.08     2          0          0          0         
J23-022          888.37     2          0          0          0         
J23-023          888.6      2          0          0          0         
J23-024          889.03     2          0          0          0         
J23-025          889.7      2          0          0          0         
J23-026          889.74     2          0          0          0         
J23-027          895        2          0          0          0         
J23-028          898.8      2          0          0          0         
J23-029          899.09     2          0          0          0         
J23-030          899.42     2          0          0          0         
J23-031          900.02     2          0          0          0         
J23-032          900.56     2          0          0          0         
J24-001          869.6      2          0          0          0         
J24-002          869.8      2          0          0          0         
J25-001          874.52     2          0          0          0         
J25-002          877        2          0          0          0         
J25-003          878.6      2          0          0          0         
J26-001          871.12     2          0          0          0         
J27-001          870.5      2          0          0          0         
J27-002          871.07     2          0          0          0         
J28-001          872.28     2          0          0          0         
J28-002          873.78     2          0          0          0         
J29-001          885.33     2          0          0          0         
J30-001          891.1      2          0          0          0         
J30-002          894.3      2          0          0          0         
J3-001           844.21     2          0          0          0         
J3-002           844.55     2          0          0          0         
J3-003           844.86     2          0          0          0         
J3-004           845.36     2          0          0          0         
J3-005           845.6      2          0          0          0         
J31-001          890.07     2          0          0          0         
J31-002          890.28     2          0          0          0         
J32-001          895.23     2          0          0          0         
J32-002          895.47     2          0          0          0         
J33-001          874.2      2          0          0          0         
J33-002          876.2      2          0          0          0         
J33-003          878.3      2          0          0          0         
J33-004          881.1      2          0          0          0         
J33-005          881.8      2          0          0          0         
J33-006          886        2          0          0          0         
J34-001          882.1      2          0          0          0         
J4-001           848.6      2          0          0          0         
J5-001           850.58     2          0          0          0         
J5-002           851.09     2          0          0          0         
J5-003           851.2      2          0          0          0         
J5-004           855.3      2          0          0          0         
J5-005           856.5      2          0          0          0         
J6-001           858.1      2          0          0          0         
J6-002           858.76     2          0          0          0         
J6-003           859.23     2          0          0          0         
J6-004           859.65     2          0          0          0         
J6-005           859.79     2          0          0          0         
J6-006           862.6      2          0          0          0         
J7-001           868.2      2          0          0          0         
J7-002           868.6      2          0          0          0         
J7-003           868.7      2          0          0          0         
J7-004           870.9      2          0          0          0         
J7-005           873        2          0          0          0         
J7-006           873.6      2          0          0          0         
J7-007           875.50     2          0          0          0         
J7-008           877.9      2          0          0          0         
J8-001           849.13     2          0          0          0         
J8-002           849.36     2          0          0          0         
J9-001           853.1      2          0          0          0         
J9-002           853.3      2          0          0          0         

[OUTFALLS]
;;Name           Elevation  Type       Stage Data       Gated    Route To        
;;-------------- ---------- ---------- ---------------- -------- ----------------
OF1-001          838        FREE                        NO                       
OF35-001         841.5      FREE                        NO                       

[STORAGE]