[TITLE]
L-TOWN v1.2
L-TOWN (v1.2) was developed by KIOS Research and Innovation Center of Excellenc

[JUNCTIONS]
;ID              	Elev        	Demand      	Pattern         
 n1              	73.2105     	0.000000    	    	;AMR & PRESSURE SENSOR
 n2              	73.8737     	0.169920    	    	;AMR
 n3              	73.1782     	0.190800    	    	;AMR
 n4              	68.2608     	0.000000    	    	;AMR & PRESSURE SENSOR
 n5              	65.5695     	0.232200    	    	;
 n6              	70.9095     	0.246600    	    	;AMR
 n7              	75.9175     	0.378360    	    	;AMR
 n8              	64.4833     	0.301320    	    	;AMR
 n9              	69.2626     	0.404640    	    	;AMR
 n10             	74.3469     	0.084240    	    	;AMR
 n11             	63.0588     	0.544320    	    	;AMR
 n12             	68.2274     	0.058320    	    	;
 n13             	61.9901     	0.235800    	    	;AMR
 n14             	68.5805     	0.019440    	    	;
 n15             	70.9492     	0.191520    	    	;
 n16             	68.7986     	0.096480    	    	;AMR
 n17             	60.5935     	0.448920    	    	;AMR
 n18             	67.1420     	0.072360    	    	;AMR
 n19             	73.3626     	0.129240    	    	;AMR
 n20             	65.9549     	0.144360    	    	;AMR
 n21             	59.6849     	0.060840    	    	;AMR
 n22             	76.1173     	0.150840    	    	;AMR
 n23             	64.2052     	0.028690    	    	;AMR
 n24             	67.8217     	0.043920    	    	;AMR
 n25             	58.9717     	0.000000    	    	;AMR
 n26             	61.6305     	0.004680    	    	;AMR
 n27             	65.7763     	0.130680    	    	;AMR
 n28             	61.4047     	0.000000    	    	;AMR
 n29             	71.5429     	0.048960    	    	;AMR
 n30             	75.3299     	0.305640    	    	;AMR
 n31             	65.0059     	0.116280    	    	;AMR & PRESSURE SENSOR
 n32             	71.1590     	0.079920    	    	;AMR
 n33             	60.5902     	0.002880    	    	;AMR
 n34             	65.8482     	0.112320    	    	;AMR
 n35             	59.6258     	0.000000    	    	;AMR
 n36             	70.1959     	0.266400    	    	;AMR
 n37             	63.9172     	0.084600    	    	;
 n38             	58.5794     	0.188890    	    	;
 n39             	62.9791     	0.016560    	    	;AMR
 n40             	60.2093     	0.342000    	    	;AMR
 n41             	69.2961     	0.170280    	    	;AMR
 n42             	61.0635     	0.243000    	    	;AMR
 n43             	61.8585     	0.118080    	    	;AMR
 n44             	66.1177     	0.038880    	    	;AMR
 n45             	62.5989     	0.272880    	    	;AMR
 n343            	66.1200     	0.128300    	    	;AMR
 n344            	74.2800     	0.266400    	    	;AMR
 n345            	71.2300     	0.052560    	    	;AMR
 n346            	67.9300     	0.178560    	    	;AMR
 n347            	73.6617     	0.000000    	    	;AMR
 n348            	74.1128     	0.029880    	    	;
 n349            	74.5640     	0.059760    	    	;AMR
 n350            	75.0152     	0.208440    	    	;AMR
 n351            	75.4663     	0.392400    	    	;AMR
 n352            	74.1103     	0.133200    	    	;AMR
 n353            	73.5455     	0.292680    	    	;AMR
 n354            	73.9127     	0.123120    	    	;AMR
 n355            	66.4555     	0.438120    	    	;AMR
 n356            	67.3414     	0.124200    	    	;AMR
 n357            	69.7450     	0.102240    	    	;AMR
 n358            	75.9841     	0.550080    	    	;AMR
 n359            	76.0507     	0.388080    	    	;
 n360            	64.9738     	0.268200    	    	;AMR
 n361            	65.4644     	0.113400    	    	;AMR
 n362            	74.0188     	0.005760    	    	;AMR
 n363            	73.6907     	0.154440    	    	;
 n364            	63.4409     	0.099360    	    	;AMR
 n365            	63.8231     	0.110520    	    	;AMR
 n366            	61.8702     	0.163800    	    	;AMR
 n367            	61.7504     	0.044890    	    	;AMR
 n368            	71.0896     	0.115560    	    	;AMR
 n369            	60.5924     	0.177840    	    	;AMR
 n370            	60.5913     	0.040270    	    	;AMR
 n371            	73.8213     	0.070560    	    	;AMR
 n372            	65.8656     	0.036000    	    	;AMR
 n373            	59.6553     	0.030600    	    	;AMR
 n374            	74.9737     	0.112680    	    	;AMR
 n375            	73.8301     	0.058680    	    	;AMR
 n376            	72.6865     	0.128160    	    	;AMR
 n377            	62.9179     	0.000000    	    	;AMR
 n378            	68.9578     	0.013680    	    	;AMR
 n379            	70.0939     	0.097200    	    	;AMR
 n380            	61.2341     	0.168120    	    	;
 n381            	74.0464     	0.230040    	    	;AMR
 n382            	72.7629     	0.147600    	    	;AMR
 n383            	71.4794     	0.084600    	    	;AMR
 n384            	69.5445     	0.210240    	    	;AMR
 n385            	66.8891     	0.048960    	    	;AMR
 n386            	59.3943     	0.248760    	    	;AMR
 n387            	64.9448     	0.160920    	    	;AMR
 n388            	63.7718     	0.298510    	    	;AMR
 n389            	67.0238     	0.168120    	    	;AMR

[RESERVOIRS]
;ID              	Head        	Pattern         
 R1              	100         	                	;

[TANKS]
;ID              	Elevation   	InitLevel   	MinLevel    	MaxLevel    	Diameter    	MinVol      	VolCurve

[PIPES]
;ID              	Node1           	Node2           	Length      	Diameter    	Roughness   	MinorLoss   	Status
 p5              	n3              	n2              	23.7879     	100.0000    	140.0000    	0.0000      	Open  	;
 p6              	n12             	n14             	31.2114     	100.0000    	140.0000    	0.0000      	Open  	;
 p7              	n6              	n9              	43.3995     	100.0000    	140.0000    	0.0000      	Open  	;
 p8              	n22             	n30             	53.0045     	100.0000    	140.0000    	0.0000      	Open  	;
 p11             	n7              	n10             	68.3713     	100.0000    	140.0000    	0.0000      	Open  	;
 p12             	n9              	n4              	70.3494     	100.0000    	140.0000    	0.0000      	Open  	;
 p13             	n31             	n27             	49.4422     	100.0000    	140.0000    	0.0000      	Open  	;
 p14             	n14             	n16             	34.2032     	100.0000    	140.0000    	0.0000      	Open  	;
 p15             	n15             	n16             	72.2253     	100.0000    	140.0000    	0.0000      	Open  	;
 p16             	n16             	n18             	50.1237     	100.0000    	140.0000    	0.0000      	Open  	;
 p17             	n18             	n20             	54.2489     	100.0000    	140.0000    	0.0000      	Open  	;
 p18             	n18             	n24             	65.1910     	100.0000    	140.0000    	0.0000      	Open  	;
 p19             	n21             	n25             	56.4633     	100.0000    	140.0000    	0.0000      	Open  	;
 p20             	n26             	n28             	29.6436     	100.0000    	140.0000    	0.0000      	Open  	;
 p21             	n27             	n34             	47.7731     	100.0000    	140.0000    	0.0000      	Open  	;
 p22             	n28             	n33             	43.8692     	100.0000    	140.0000    	0.0000      	Open  	;
 p23             	n29             	n32             	18.6286     	100.0000    	140.0000    	0.0000      	Open  	;
 p24             	n32             	n36             	50.1077     	100.0000    	140.0000    	0.0000      	Open  	;
 p25             	n33             	n35             	72.5123     	100.0000    	140.0000    	0.0000      	Open  	;
 p26             	n34             	n37             	60.0953     	100.0000    	140.0000    	0.0000      	Open  	;
 p27             	n35             	n38             	38.7224     	100.0000    	140.0000    	0.0000      	Open  	;
 p28             	n36             	n41             	42.5986     	100.0000    	140.0000    	0.0000      	Open  	;
 p29             	n37             	n45             	63.0851     	100.0000    	140.0000    	0.0000      	Open  	;
 p30             	n37             	n39             	49.6992     	100.0000    	140.0000    	0.0000      	Open  	;
 p31             	n40             	n42             	48.2914     	100.0000    	140.0000    	0.0000      	Open  	;
 p32             	n42             	n43             	41.6678     	100.0000    	140.0000    	0.0000      	Open  	;
 p33             	n43             	n45             	40.4763     	100.0000    	140.0000    	0.0000      	Open  	;
 p239            	R1              	n343            	26.9887     	200.0000    	140.0000    	0.0000      	Open  	;
 p240            	n343            	n44             	23.9926     	200.0000    	140.0000    	0.0000      	Open  	;
 p241            	n5              	n8              	52.1570     	100.0000    	140.0000    	0.0000      	Open  	;
 p242            	n8              	n11             	62.8657     	100.0000    	140.0000    	0.0000      	Open  	;
 p243            	n11             	n13             	58.9374     	100.0000    	140.0000    	0.0000      	Open  	;
 p244            	n13             	n17             	72.0893     	100.0000    	140.0000    	0.0000      	Open  	;
 p245            	n17             	n21             	73.4228     	100.0000    	140.0000    	0.0000      	Open  	;
 p246            	n10             	n344            	66.1972     	100.0000    	140.0000    	0.0000      	Open  	;
 p247            	n344            	n15             	62.8912     	100.0000    	140.0000    	0.0000      	Open  	;
 p248            	n24             	n346            	56.5717     	100.0000    	140.0000    	0.0000      	Open  	;
 p249            	n345            	n29             	60.1765     	100.0000    	140.0000    	0.0000      	Open  	;
 p250            	n19             	n345            	63.0229     	100.0000    	140.0000    	0.0000      	Open  	;
 p251            	n23             	n31             	48.4540     	100.0000    	140.0000    	0.0000      	Open  	;
 p252            	n20             	n23             	61.1031     	100.0000    	140.0000    	0.0000      	Open  	;
 p253            	n1              	n347            	68.0970     	100.0000    	140.0000    	0.0000      	Open  	;
 p254            	n347            	n348            	45.4723     	100.0000    	140.0000    	0.0000      	Open  	;
 p255            	n348            	n349            	50.5431     	100.0000    	140.0000    	0.0000      	Open  	;
 p256            	n349            	n350            	50.0042     	100.0000    	140.0000    	0.0000      	Open  	;
 p257            	n350            	n351            	45.6975     	100.0000    	140.0000    	0.0000      	Open  	;
 p258            	n351            	n7              	54.9718     	100.0000    	140.0000    	0.0000      	Open  	;
 p259            	n2              	n352            	45.9778     	100.0000    	140.0000    	0.0000      	Open  	;
 p260            	n352            	n10             	45.9758     	100.0000    	140.0000    	0.0000      	Open  	;
 p261            	n3              	n353            	47.9576     	100.0000    	140.0000    	0.0000      	Open  	;
 p262            	n353            	n354            	46.1673     	100.0000    	140.0000    	0.0000      	Open  	;
 p263            	n354            	n344            	46.6814     	100.0000    	140.0000    	0.0000      	Open  	;
 p264            	n5              	n355            	58.9057     	100.0000    	140.0000    	0.0000      	Open  	;
 p265            	n355            	n356            	47.8409     	100.0000    	140.0000    	0.0000      	Open  	;
 p266            	n356            	n12             	42.6386     	100.0000    	140.0000    	0.0000      	Open  	;
 p267            	n6              	n357            	44.7387     	100.0000    	140.0000    	0.0000      	Open  	;
 p268            	n357            	n14             	74.2158     	100.0000    	140.0000    	0.0000      	Open  	;
 p269            	n7              	n358            	54.8852     	100.0000    	140.0000    	0.0000      	Open  	;
 p270            	n358            	n359            	54.8734     	100.0000    	140.0000    	0.0000      	Open  	;
 p271            	n359            	n22             	54.8852     	100.0000    	140.0000    	0.0000      	Open  	;
 p272            	n8              	n360            	54.4422     	100.0000    	140.0000    	0.0000      	Open  	;
 p273            	n360            	n361            	54.4379     	100.0000    	140.0000    	0.0000      	Open  	;
 p274            	n361            	n20             	54.4422     	100.0000    	140.0000    	0.0000      	Open  	;
 p275            	n10             	n362            	55.0520     	100.0000    	140.0000    	0.0000      	Open  	;
 p276            	n362            	n363            	42.0531     	100.0000    	140.0000    	0.0000      	Open  	;
 p277            	n363            	n19             	52.7753     	100.0000    	140.0000    	0.0000      	Open  	;
 p278            	n11             	n364            	49.2109     	100.0000    	140.0000    	0.0000      	Open  	;
 p279            	n364            	n365            	49.2020     	100.0000    	140.0000    	0.0000      	Open  	;
 p280            	n365            	n23             	49.2109     	100.0000    	140.0000    	0.0000      	Open  	;
 p281            	n13             	n366            	46.9238     	100.0000    	140.0000    	0.0000      	Open  	;
 p282            	n366            	n367            	46.9108     	100.0000    	140.0000    	0.0000      	Open  	;
 p283            	n367            	n26             	46.9238     	100.0000    	140.0000    	0.0000      	Open  	;
 p284            	n15             	n368            	40.9555     	100.0000    	140.0000    	0.0000      	Open  	;
 p285            	n368            	n345            	40.9555     	100.0000    	140.0000    	0.0000      	Open  	;
 p286            	n17             	n369            	41.7936     	100.0000    	140.0000    	0.0000      	Open  	;
 p287            	n369            	n370            	41.7842     	100.0000    	140.0000    	0.0000      	Open  	;
 p288            	n370            	n33             	41.7936     	100.0000    	140.0000    	0.0000      	Open  	;
 p289            	n19             	n371            	44.3754     	100.0000    	140.0000    	0.0000      	Open  	;
 p290            	n371            	n344            	44.3880     	100.0000    	140.0000    	0.0000      	Open  	;
 p291            	n20             	n372            	52.1064     	100.0000    	140.0000    	0.0000      	Open  	;
 p292            	n372            	n27             	31.2938     	100.0000    	140.0000    	0.0000      	Open  	;
 p293            	n21             	n373            	56.6909     	100.0000    	140.0000    	0.0000      	Open  	;
 p294            	n373            	n35             	56.6782     	100.0000    	140.0000    	0.0000      	Open  	;
 p295            	n22             	n374            	45.2612     	100.0000    	140.0000    	0.0000      	Open  	;
 p296            	n374            	n375            	45.2612     	100.0000    	140.0000    	0.0000      	Open  	;
 p297            	n375            	n376            	45.2708     	100.0000    	140.0000    	0.0000      	Open  	;
 p298            	n376            	n29             	45.2612     	100.0000    	140.0000    	0.0000      	Open  	;
 p299            	n23             	n377            	37.9110     	100.0000    	140.0000    	0.0000      	Open  	;
 p300            	n377            	n26             	37.9200     	100.0000    	140.0000    	0.0000      	Open  	;
 p301            	n24             	n378            	42.1213     	100.0000    	140.0000    	0.0000      	Open  	;
 p302            	n378            	n379            	42.1282     	100.0000    	140.0000    	0.0000      	Open  	;
 p303            	n379            	n345            	42.1213     	100.0000    	140.0000    	0.0000      	Open  	;
 p304            	n28             	n380            	51.8914     	100.0000    	140.0000    	0.0000      	Open  	;
 p305            	n380            	n42             	51.8798     	100.0000    	140.0000    	0.0000      	Open  	;
 p306            	n30             	n381            	49.2268     	100.0000    	140.0000    	0.0000      	Open  	;
 p307            	n381            	n382            	49.2364     	100.0000    	140.0000    	0.0000      	Open  	;
 p308            	n382            	n383            	49.2241     	100.0000    	140.0000    	0.0000      	Open  	;
 p309            	n383            	n36             	49.2364     	100.0000    	140.0000    	0.0000      	Open  	;
 p310            	n32             	n384            	54.2583     	100.0000    	140.0000    	0.0000      	Open  	;
 p311            	n384            	n346            	54.2656     	100.0000    	140.0000    	0.0000      	Open  	;
 p312            	n34             	n385            	37.8059     	100.0000    	140.0000    	0.0000      	Open  	;
 p313            	n385            	n346            	37.8079     	100.0000    	140.0000    	0.0000      	Open  	;
 p314            	n38             	n386            	58.7666     	100.0000    	140.0000    	0.0000      	Open  	;
 p315            	n386            	n40             	58.7569     	100.0000    	140.0000    	0.0000      	Open  	;
 p316            	n44             	n387            	48.3058     	200.0000    	140.0000    	0.0000      	Open  	;
 p317            	n387            	n388            	48.3053     	200.0000    	140.0000    	0.0000      	Open  	;
 p318            	n388            	n45             	48.3058     	200.0000    	140.0000    	0.0000      	Open  	;
 p319            	n44             	n389            	41.9903     	100.0000    	140.0000    	0.0000      	Open  	;
 p320            	n389            	n346            	41.9919     	100.0000    	140.0000    	0.0000      	Open  	;

[PUMPS]
;ID              	Node1           	Node2           	Parameters

[VALVES]
;ID              	Node1           	Node2           	Diameter    	Type	Setting     	MinorLoss   

[TAGS]

[DEMANDS]
;Junction        	Demand      	Pattern         	Category

[STATUS]
;ID              	Status/Setting

[PATTERNS]
;ID              	Multipliers
;

[CURVES]
;ID              	X-Value     	Y-Value
;PUMP: PUMP: PUMP:

[CONTROLS]





[RULES]




[ENERGY]
 Global Efficiency  	75.0000
 Global Price       	0
 Demand Charge      	0.0000

[EMITTERS]
;Junction        	Coefficient

[QUALITY]
;Node            	InitQual

[SOURCES]
;Node            	Type        	Quality     	Pattern

[REACTIONS]
;Type     	Pipe/Tank       	Coefficient


[REACTIONS]
 Order Bulk            	1.00
 Order Tank            	1.00
 Order Wall            	1
 Global Bulk           	0.000000
 Global Wall           	0.000000
 Limiting Potential    	0
 Roughness Correlation 	0

[MIXING]
;Tank            	Model

[TIMES]
 Duration           	0:00
 Hydraulic Timestep 	0:05 
 Quality Timestep   	0:05 
 Pattern Timestep   	0:05 
 Pattern Start      	0:00 
 Report Timestep    	0:05 
 Report Start       	0:00 
 Start ClockTime    	0:00
 Statistic          	NONE

[REPORT]
 Status             	Full
 Summary            	No
 Page               	0


[OPTIONS]
 Units              	CMH
 Headloss           	H-W
 Specific Gravity   	1.000000
 Viscosity          	1.000000
 Trials             	50
 Accuracy           	0.01000000
 CHECKFREQ          	2
 MAXCHECK           	10
 DAMPLIMIT          	0.00000000
 Unbalanced         	Continue 10
 Pattern            	1
 Demand Multiplier  	1.0000
 Emitter Exponent   	0.5000
 Quality            	NONE mg/L
 Diffusivity        	1.000000
 Tolerance          	0.01000000

[COORDINATES]
;Node            	X-Coord         	Y-Coord
 n1              	138.22          	1549.64         
 n2              	274.23          	1504.56         
 n3              	271.28          	1480.96         
 n4              	186.62          	1326.65         
 n5              	158.93          	1233.34         
 n6              	261.33          	1361.98         
 n7              	369.97          	1543.26         
 n8              	162.65          	1181.32         
 n9              	256.54          	1318.85         
 n10             	361.45          	1475.42         
 n11             	167.14          	1118.61         
 n12             	271.09          	1281.28         
 n13             	170.68          	1059.78         
 n14             	302.24          	1279.26         
 n15             	344.84          	1347.41         
 n16             	336.37          	1277.06         
 n17             	177.12          	987.98          
 n18             	331.16          	1227.21         
 n19             	439.91          	1391.07         
 n20             	325.78          	1173.23         
 n21             	181.22          	914.67          
 n22             	525.83          	1490.19         
 n23             	314.66          	1113.15         
 n24             	393.30          	1207.50         
 n25             	195.95          	860.16          
 n26             	309.66          	1037.48         
 n27             	378.84          	1136.18         
 n28             	305.94          	1008.07         
 n29             	482.97          	1314.28         
 n30             	575.55          	1471.84         
 n31             	361.51          	1100.77         
 n32             	478.09          	1296.30         
 n33             	300.29          	964.57          
 n34             	423.91          	1120.35         
 n35             	292.40          	892.50          
 n36             	525.89          	1281.28         
 n37             	405.03          	1063.30         
 n38             	288.82          	853.94          
 n39             	389.45          	1016.10         
 n40             	370.29          	938.65          
 n41             	566.53          	1268.51         
 n42             	403.76          	973.45          
 n43             	432.65          	1003.48         
 n44             	526.16          	1162.06         
 n45             	460.34          	1032.96         
 n343            	548.48          	1153.26         
 n344            	353.14          	1409.75         
 n345            	424.85          	1329.87         
 n346            	447.73          	1192.11         
 n347            	135.02          	1617.66         
 n348            	179.23          	1607.01         
 n349            	227.11          	1590.82         
 n350            	275.12          	1576.83         
 n351            	318.71          	1563.11         
 n352            	317.84          	1489.99         
 n353            	263.42          	1433.65         
 n354            	308.00          	1421.64         
 n355            	217.79          	1235.65         
 n356            	265.51          	1239.01         
 n357            	305.24          	1353.42         
 n358            	421.93          	1525.57         
 n359            	473.87          	1507.88         
 n360            	217.03          	1178.62         
 n361            	271.40          	1175.93         
 n362            	413.65          	1457.94         
 n363            	452.68          	1442.27         
 n364            	216.32          	1116.79         
 n365            	265.49          	1114.97         
 n366            	217.01          	1052.35         
 n367            	263.33          	1044.91         
 n368            	384.84          	1338.64         
 n369            	218.18          	980.17          
 n370            	259.23          	972.37          
 n371            	396.53          	1400.41         
 n372            	377.56          	1167.44         
 n373            	236.81          	903.59          
 n374            	515.11          	1446.21         
 n375            	504.40          	1402.24         
 n376            	493.68          	1358.26         
 n377            	312.17          	1075.32         
 n378            	403.81          	1248.29         
 n379            	414.34          	1289.08         
 n380            	354.86          	990.76          
 n381            	563.14          	1424.20         
 n382            	550.73          	1376.56         
 n383            	538.31          	1328.92         
 n384            	462.92          	1244.21         
 n385            	435.83          	1156.23         
 n386            	329.56          	896.30          
 n387            	504.22          	1119.03         
 n388            	482.27          	1075.99         
 n389            	486.95          	1177.09         
 R1              	567.91          	1145.93         

[VERTICES]
;Link            	X-Coord         	Y-Coord

[LABELS]
;X-Coord           Y-Coord          Label & Anchor Node

[BACKDROP]
 DIMENSIONS     	0.00            	0.00            	2970.45         	1694.69         
 UNITS          	Meters
 FILE           	
 OFFSET         	0.00            	0.00            

[END]
