; Filename: data/Exercise.inp
; WNTR: 0.3.0
; Created: 2022-04-25 12:46:05
[TITLE]
DESCRIPTION

[JUNCTIONS]
;ID                      Elevation       Demand Pattern                 
 1_0                       408.014069               0 1                          ;
 1_100                     419.062164        0.003897 1                          ;
 1_1002                    429.560333        0.000165 1                          ;
 1_1004                    432.985474        0.005137 1                          ;
 1_1010                    415.240692        0.005149 1                          ;
 1_1011                    433.312164        0.001832 1                          ;
 1_1012                    415.306732        0.004752 1                          ;
 1_1017                    433.812897               0 1                          ;
 1_102                     417.710327               0 1                          ;
 1_1020                    433.859955               0 1                          ;
 1_1022                    433.919617        0.001826 1                          ;
 1_1024                    435.329987        0.000476 1                          ;
 1_1026                    434.387024        0.001063 1                          ;
 1_1031                    415.661377               0 1                          ;
 1_1032                    422.408661               0 1                          ;
 1_1033                    422.558136               0 1                          ;
 1_1039                     416.80542         0.00292 1                          ;
 1_1041                    416.914398        0.006591 1                          ;
 1_1043                      433.6138         0.00339 1                          ;
 1_1050                    418.217224               0 1                          ;
 1_1052                     504.67215               0 1                          ;
 1_1054                    423.500977        0.003983 1                          ;
 1_1056                    423.595856        0.005039 1                          ;
 1_1060                    423.454742        0.002523 1                          ;
 1_1061                    423.441498        0.001747 1                          ;
 1_1062                    413.975494         9.8e-05 1                          ;
 1_1068                    418.613861        0.007012 1                          ;
 1_1070                    423.259735        0.001674 1                          ;
 1_1071                    422.999786         0.00587 1                          ;
 1_1073                    415.479736        0.005809 1                          ;
 1_1074                     423.01001               0 1                          ;
 1_1075                    423.020264               0 1                          ;
 1_108                     459.439941               0 1                          ;
 1_1088                    424.294647        0.003427 1                          ;
 1_1091                     413.93924               0 1                          ;
 1_1097                     424.97644        0.001661 1                          ;
 1_1099                    420.418427        0.008258 1                          ;
 1_11                      439.892761        0.001564 1                          ;
 1_1105                    420.516022               0 1                          ;
 1_1107                    414.392792        0.003897 1                          ;
 1_1109                    425.664368        0.005442 1                          ;
 1_1114                    414.818939        0.005369 1                          ;
 1_1116                    420.475433        0.004703 1                          ;
 1_1118                    415.207184               0 1                          ;
 1_1120                    504.700012               0 1                          ;
 1_1125                    414.270844         0.00419 1                          ;
 1_114                     459.639587        0.000599 1                          ;
 1_1142                    426.282623        0.007654 1                          ;
 1_1146                    426.456512        0.003146 1                          ;
 1_1147                    426.529175        0.003036 1                          ;
 1_1149                    414.527954        0.002614 1                          ;
 1_1151                    420.550415               0 1                          ;
 1_1161                    420.673065        0.003946 1                          ;
 1_1164                    414.537872        0.001173 1                          ;
 1_1168                    427.414825        0.003066 1                          ;
 1_1169                    415.355988        0.005705 1                          ;
 1_117                     461.402405        0.004221 1                          ;
 1_1173                    418.220001        0.004545 1                          ;
 1_1177                    420.409119         0.00474 1                          ;
 1_1179                    427.744507        0.004264 1                          ;
 1_1182                    419.245026         0.00507 1                          ;
 1_1183                    418.667908        0.005614 1                          ;
 1_1184                    420.434113        0.002889 1                          ;
 1_1188                    428.028015        0.004337 1                          ;
 1_1193                    416.226074        0.002297 1                          ;
 1_1194                    428.623322        0.002877 1                          ;
 1_1196                    431.151215        0.000965 1                          ;
 1_1202                    432.969971        0.004398 1                          ;
 1_1203                    433.100952        0.000751 1                          ;
 1_1208                    434.727356        0.004056 1                          ;
 1_1209                    435.455505         7.9e-05 1                          ;
 1_1212                    427.692047               0 1                          ;
 1_1213                    427.683289               0 1                          ;
 1_1214                    427.470856               0 1                          ;
 1_1221                    440.397186        0.005418 1                          ;
 1_1223                    427.688263               0 1                          ;
 1_1226                    427.698914               0 1                          ;
 1_1227                     427.69101               0 1                          ;
 1_1228                    427.693451               0 1                          ;
 1_1230                    428.825806        0.002022 1                          ;
 1_1231                    428.926727        0.003463 1                          ;
 1_1232                    416.134918        0.005907 1                          ;
 1_1247                    428.765961               0 1                          ;
 1_1248                    428.765228               0 1                          ;
 1_1249                    428.732727               0 1                          ;
 1_125                     461.459656        0.001393 1                          ;
 1_1250                    428.710236               0 1                          ;
 1_1258                    428.730011               0 1                          ;
 1_126                     459.312286               0 1                          ;
 1_1261                    429.363159               0 1                          ;
 1_1262                    429.200104               0 1                          ;
 1_1264                    435.608246        0.004178 1                          ;
 1_1267                    435.973328         0.00213 1                          ;
 1_1268                    435.979523        0.003072 1                          ;
 1_1270                    415.317383        0.002773 1                          ;
 1_1275                    404.500092               0 1                          ;
 1_1278                    404.532898        0.002236 1                          ;
 1_128                      459.38562               0 1                          ;
 1_1280                    404.615356               0 1                          ;
 1_1283                    405.256287        0.013206 1                          ;
 1_1289                    405.481476        0.006053 1                          ;
 1_1294                           415        0.024549 1                          ;
 1_13                      467.837219               0 1                          ;
 1_130                     421.133362        0.002578 1                          ;
 1_1307                    405.399994        0.007275 1                          ;
 1_1309                           406        0.007483 1                          ;
 1_1310                    406.200012        0.004239 1                          ;
 1_1311                    406.899994               0 1                          ;
 1_1312                    406.600006        0.008503 1                          ;
 1_1313                    406.600006        0.010873 1                          ;
 1_1315                    406.899994               0 1                          ;
 1_1318                    407.399994        0.006621 1                          ;
 1_1319                    407.600006        0.020554 1                          ;
 1_1321                         408.5        0.008252 1                          ;
 1_1323                    408.899994        0.008484 1                          ;
 1_1325                    409.700012        0.013585 1                          ;
 1_1326                    409.700012               0 1                          ;
 1_1328                    409.549988        0.015747 1                          ;
 1_1329                    409.700012               0 1                          ;
 1_133                      424.90097        0.006035 1                          ;
 1_1330                    409.700012               0 1                          ;
 1_1334                    409.899994               0 1                          ;
 1_1336                    409.899994        0.006658 1                          ;
 1_134                     424.756073        0.003341 1                          ;
 1_1345                    406.007477        0.008521 1                          ;
 1_1347                    407.527222         0.01006 1                          ;
 1_1349                     408.32666               0 1                          ;
 1_1355                    476.982086        0.006194 1                          ;
 1_1357                    476.981171               0 1                          ;
 1_136                     426.505005               0 1                          ;
 1_1366                           413               0 1                          ;
 1_1367                         414.5        0.013285 1                          ;
 1_1368                           413               0 1                          ;
 1_1373                    473.068695        0.002138 1                          ;
 1_1375                    476.709961               0 1                          ;
 1_1377                    476.692139               0 1                          ;
 1_1378                    406.334351               0 1                          ;
 1_1380                    406.329987               0 1                          ;
 1_1381                    406.339996               0 1                          ;
 1_1382                     476.70343         0.00295 1                          ;
 1_1386                    448.723633        0.001002 1                          ;
 1_1387                    406.532196               0 1                          ;
 1_1389                    407.900055               0 1                          ;
 1_139                     426.575195        0.002346 1                          ;
 1_1391                    468.710754        0.002565 1                          ;
 1_1392                    476.390533         0.00215 1                          ;
 1_1394                    444.716858        0.005039 1                          ;
 1_140                     427.640015        0.002101 1                          ;
 1_1402                    443.135864        0.002394 1                          ;
 1_1406                    442.263031        0.000116 1                          ;
 1_1409                    407.780151         7.9e-05 1                          ;
 1_1414                    440.696838        0.003161 1                          ;
 1_1415                    440.953247        0.002565 1                          ;
 1_142                     462.411285        0.002126 1                          ;
 1_1420                    442.294678        0.001613 1                          ;
 1_1429                    433.665863        0.004624 1                          ;
 1_1433                    462.694061        0.005229 1                          ;
 1_1436                    462.685699        0.009529 1                          ;
 1_1449                    443.834625        0.003066 1                          ;
 1_1451                    449.212891               0 1                          ;
 1_1452                    451.222382               0 1                          ;
 1_1453                    455.789429        0.008283 1                          ;
 1_1455                     455.30304               0 1                          ;
 1_1456                    455.690369        0.007806 1                          ;
 1_1465                    469.999939               0 1                          ;
 1_1466                    465.745361        0.005058 1                          ;
 1_1467                    465.426605               0 1                          ;
 1_1468                    469.940552               0 1                          ;
 1_1469                    470.000214        0.005455 1                          ;
 1_1475                    468.311798        0.003671 1                          ;
 1_1480                    473.479919        0.000932 1                          ;
 1_1481                    466.141052               0 1                          ;
 1_1482                    466.120026               0 1                          ;
 1_1483                    474.597198               0 1                          ;
 1_1484                    474.668091               0 1                          ;
 1_1486                    463.232605               0 1                          ;
 1_1487                    463.154816        0.002547 1                          ;
 1_149                     407.269501         0.00416 1                          ;
 1_1491                    460.258789        0.002535 1                          ;
 1_1492                     475.04422               0 1                          ;
 1_1496                    475.072144               0 1                          ;
 1_1498                    475.075439               0 1                          ;
 1_1510                    467.916931        0.003805 1                          ;
 1_1515                    417.694153        0.002101 1                          ;
 1_1521                    417.691772               0 1                          ;
 1_1523                    457.972626        0.003848 1                          ;
 1_1528                    496.466278        0.005833 1                          ;
 1_1533                    417.861206               0 1                          ;
 1_1535                    417.143738         0.00623 1                          ;
 1_1538                    417.510773         0.00336 1                          ;
 1_1539                    417.493652        0.004117 1                          ;
 1_1540                    417.466003               0 1                          ;
 1_1542                    417.459991               0 1                          ;
 1_1551                    455.132599        0.000611 1                          ;
 1_1553                    477.073883        0.000275 1                          ;
 1_1559                    477.270691        0.003647 1                          ;
 1_1561                    418.173218        0.002087 1                          ;
 1_1562                    453.220154         3.1e-05 1                          ;
 1_1572                    418.434204        0.002162 1                          ;
 1_1573                    437.470032        0.004496 1                          ;
 1_1575                    445.422821               0 1                          ;
 1_1576                    445.389679               0 1                          ;
 1_1578                    445.347382               0 1                          ;
 1_1586                     440.44693        0.002527 1                          ;
 1_159                     407.241058        0.004632 1                          ;
 1_1590                    418.564606        0.003341 1                          ;
 1_1593                    477.661987        0.007507 1                          ;
 1_1594                    477.706177         0.00303 1                          ;
 1_1603                    469.069733         0.00215 1                          ;
 1_1606                    426.279816        0.001093 1                          ;
 1_1608                    418.771057        0.004331 1                          ;
 1_1610                    469.175171        0.002743 1                          ;
 1_1615                    469.281097        0.002865 1                          ;
 1_1617                    418.987579        0.001576 1                          ;
 1_162                     431.599396        0.001875 1                          ;
 1_1622                    419.029114        0.005882 1                          ;
 1_1625                     478.33313        0.007025 1                          ;
 1_1629                    479.230377        0.002175 1                          ;
 1_163                     431.570557               0 1                          ;
 1_1636                    422.929291               0 1                          ;
 1_1637                    469.804932               0 1                          ;
 1_1640                    422.866882        0.004068 1                          ;
 1_1645                    418.951996        0.002358 1                          ;
 1_1646                    422.857147               0 1                          ;
 1_1650                    419.038025        0.002291 1                          ;
 1_1654                    480.166748        0.000177 1                          ;
 1_1657                    480.344543        0.003738 1                          ;
 1_1658                    470.092865               0 1                          ;
 1_1663                    423.581055        0.002975 1                          ;
 1_1666                     468.99646               0 1                          ;
 1_1671                     418.96933               0 1                          ;
 1_1672                    420.654907               0 1                          ;
 1_1675                     425.36377        0.006805 1                          ;
 1_1678                    420.328033               0 1                          ;
 1_1679                    420.310059               0 1                          ;
 1_1681                    420.346954               0 1                          ;
 1_1682                    420.359955               0 1                          ;
 1_1693                    420.321625               0 1                          ;
 1_1694                    420.260071               0 1                          ;
 1_1695                    420.573212               0 1                          ;
 1_1696                    481.414795        0.001851 1                          ;
 1_1698                    419.024231               0 1                          ;
 1_1699                    419.026398               0 1                          ;
 1_170                     464.923279        0.002779 1                          ;
 1_1700                    419.022308               0 1                          ;
 1_1708                    421.048248        0.004392 1                          ;
 1_1709                    419.024231               0 1                          ;
 1_171                     430.610077               0 1                          ;
 1_1711                    462.705902               0 1                          ;
 1_1712                     462.87085               0 1                          ;
 1_1713                    462.595215               0 1                          ;
 1_1719                    420.672913        0.002914 1                          ;
 1_172                     430.485809        0.002162 1                          ;
 1_1724                    419.047516               0 1                          ;
 1_1725                    419.044525               0 1                          ;
 1_1727                    482.287354        0.005497 1                          ;
 1_1728                    457.370178               0 1                          ;
 1_1741                    455.194672               0 1                          ;
 1_1747                     455.20874               0 1                          ;
 1_1753                    424.765472               0 1                          ;
 1_1755                    483.395111        0.002046 1                          ;
 1_1756                    499.408142               0 1                          ;
 1_1757                     499.43045               0 1                          ;
 1_1758                    424.563232         0.00642 1                          ;
 1_1760                    499.415924               0 1                          ;
 1_1761                    483.580109        0.001173 1                          ;
 1_1767                    484.484863        0.000696 1                          ;
 1_1768                    484.489288               0 1                          ;
 1_177                     429.967407        0.001423 1                          ;
 1_1781                    484.780853        0.003201 1                          ;
 1_1782                    484.830017               0 1                          ;
 1_1785                    424.222382               0 1                          ;
 1_1787                    424.169281        0.002113 1                          ;
 1_179                     428.580139        0.006701 1                          ;
 1_1796                    431.140167               0 1                          ;
 1_1797                    431.113556        0.005473 1                          ;
 1_18                      438.867706        0.000122 1                          ;
 1_180                     407.534149        0.011468 1                          ;
 1_1800                    430.204224        0.000702 1                          ;
 1_1803                    428.920715        0.002767 1                          ;
 1_1807                    425.271271        0.002364 1                          ;
 1_1809                    425.255981        0.001466 1                          ;
 1_1819                    426.790192        0.002193 1                          ;
 1_1822                    425.913239         0.00179 1                          ;
 1_1824                    425.485779        0.001185 1                          ;
 1_1825                    425.410156        0.002737 1                          ;
 1_1829                      425.3591               0 1                          ;
 1_19                      438.831116        0.001985 1                          ;
 1_192                     467.226196        0.004056 1                          ;
 1_193                     424.978851        0.002016 1                          ;
 1_195                     467.409882        0.000892 1                          ;
 1_197                     423.658295               0 1                          ;
 1_198                     423.679993               0 1                          ;
 1_199                     424.359131        0.001839 1                          ;
 1_2                        408.00885               0 1                          ;
 1_201                     469.018646        0.001863 1                          ;
 1_202                     407.613281        0.023468 1                          ;
 1_206                     474.509796               0 1                          ;
 1_21                      411.670441        0.007116 1                          ;
 1_212                     474.193329               0 1                          ;
 1_213                     474.160339               0 1                          ;
 1_214                     474.138306               0 1                          ;
 1_222                     470.257172               0 1                          ;
 1_225                     470.317566               0 1                          ;
 1_226                     470.281372               0 1                          ;
 1_232                     470.587067         0.04437 1                          ;
 1_237                     427.738312        0.003408 1                          ;
 1_239                     469.671173               0 1                          ;
 1_242                     468.760101        0.001234 1                          ;
 1_243                     468.774689        0.004019 1                          ;
 1_244                     468.770477               0 1                          ;
 1_249                     468.781311        0.004068 1                          ;
 1_254                     453.379028        0.002743 1                          ;
 1_256                     453.381378               0 1                          ;
 1_261                     458.537659               0 1                          ;
 1_262                     458.546173               0 1                          ;
 1_264                     458.533905               0 1                          ;
 1_265                     458.528687               0 1                          ;
 1_266                     458.523163               0 1                          ;
 1_267                     407.733734               0 1                          ;
 1_268                     407.720001               0 1                          ;
 1_27                      435.584381        0.003934 1                          ;
 1_270                     407.777496        0.020426 1                          ;
 1_272                     457.779388        0.007641 1                          ;
 1_274                     465.141602               0 1                          ;
 1_279                     477.899689        0.005778 1                          ;
 1_285                     433.688354        0.003879 1                          ;
 1_290                     453.349731               0 1                          ;
 1_291                     453.354919        0.005444 1                          ;
 1_299                     434.511993        0.000132 1                          ;
 1_300                     434.581909        0.004245 1                          ;
 1_302                      476.87619        0.000389 1                          ;
 1_309                     478.059692               0 1                          ;
 1_310                     477.287262        0.003549 1                          ;
 1_313                     477.896027               0 1                          ;
 1_315                     478.477142        0.004667 1                          ;
 1_316                     477.907562               0 1                          ;
 1_317                     453.555695               0 1                          ;
 1_318                     477.861389        0.003934 1                          ;
 1_319                     453.562988               0 1                          ;
 1_320                     477.864044        0.002932 1                          ;
 1_321                     476.604645        0.006108 1                          ;
 1_326                     476.828552               0 1                          ;
 1_328                      476.58017        0.000344 1                          ;
 1_334                     476.828796               0 1                          ;
 1_337                     476.833923               0 1                          ;
 1_344                     476.836365               0 1                          ;
 1_345                      476.84021               0 1                          ;
 1_346                     476.831055               0 1                          ;
 1_348                     408.133209        0.006799 1                          ;
 1_35                      430.399261               0 1                          ;
 1_351                     457.497894        0.005772 1                          ;
 1_352                     476.937439               0 1                          ;
 1_359                     476.941589        0.004056 1                          ;
 1_36                      433.400757        0.001625 1                          ;
 1_365                     458.026886        0.003097 1                          ;
 1_37                      429.086029        0.005766 1                          ;
 1_374                     476.109497               0 1                          ;
 1_379                     439.927185        0.002993 1                          ;